<nodes>
   <node id="0" x="0" y="0" />
   <node id="1" x="0" y="50" />
   <node id="2" x="0" y="100" />
   <node id="3" x="0" y="150" />
   <node id="4" x="0" y="200" />
   <node id="5" x="0" y="250" />
   <node id="6" x="0" y="300" />
   <node id="7" x="0" y="350" />
   <node id="8" x="0" y="400" />
   <node id="9" x="0" y="450" />
   <node id="10" x="50" y="0" />
   <node id="11" x="50" y="50" />
   <node id="12" x="50" y="100" />
   <node id="13" x="50" y="150" />
   <node id="14" x="50" y="200" />
   <node id="15" x="50" y="250" />
   <node id="16" x="50" y="300" />
   <node id="17" x="50" y="350" />
   <node id="18" x="50" y="400" />
   <node id="19" x="50" y="450" />
   <node id="20" x="100" y="0" />
   <node id="21" x="100" y="50" />
   <node id="22" x="100" y="100" />
   <node id="23" x="100" y="150" />
   <node id="24" x="100" y="200" />
   <node id="25" x="100" y="250" />
   <node id="26" x="100" y="300" />
   <node id="27" x="100" y="350" />
   <node id="28" x="100" y="400" />
   <node id="29" x="100" y="450" />
   <node id="30" x="150" y="0" />
   <node id="31" x="150" y="50" />
   <node id="32" x="150" y="100" />
   <node id="33" x="150" y="150" />
   <node id="34" x="150" y="200" />
   <node id="35" x="150" y="250" />
   <node id="36" x="150" y="300" />
   <node id="37" x="150" y="350" />
   <node id="38" x="150" y="400" />
   <node id="39" x="150" y="450" />
   <node id="40" x="200" y="0" />
   <node id="41" x="200" y="50" />
   <node id="42" x="200" y="100" />
   <node id="43" x="200" y="150" />
   <node id="44" x="200" y="200" />
   <node id="45" x="200" y="250" />
   <node id="46" x="200" y="300" />
   <node id="47" x="200" y="350" />
   <node id="48" x="200" y="400" />
   <node id="49" x="200" y="450" />
   <node id="50" x="250" y="0" />
   <node id="51" x="250" y="50" />
   <node id="52" x="250" y="100" />
   <node id="53" x="250" y="150" />
   <node id="54" x="250" y="200" />
   <node id="55" x="250" y="250" />
   <node id="56" x="250" y="300" />
   <node id="57" x="250" y="350" />
   <node id="58" x="250" y="400" />
   <node id="59" x="250" y="450" />
   <node id="60" x="300" y="0" />
   <node id="61" x="300" y="50" />
   <node id="62" x="300" y="100" />
   <node id="63" x="300" y="150" />
   <node id="64" x="300" y="200" />
   <node id="65" x="300" y="250" />
   <node id="66" x="300" y="300" />
   <node id="67" x="300" y="350" />
   <node id="68" x="300" y="400" />
   <node id="69" x="300" y="450" />
   <node id="70" x="350" y="0" />
   <node id="71" x="350" y="50" />
   <node id="72" x="350" y="100" />
   <node id="73" x="350" y="150" />
   <node id="74" x="350" y="200" />
   <node id="75" x="350" y="250" />
   <node id="76" x="350" y="300" />
   <node id="77" x="350" y="350" />
   <node id="78" x="350" y="400" />
   <node id="79" x="350" y="450" />
   <node id="80" x="400" y="0" />
   <node id="81" x="400" y="50" />
   <node id="82" x="400" y="100" />
   <node id="83" x="400" y="150" />
   <node id="84" x="400" y="200" />
   <node id="85" x="400" y="250" />
   <node id="86" x="400" y="300" />
   <node id="87" x="400" y="350" />
   <node id="88" x="400" y="400" />
   <node id="89" x="400" y="450" />
   <node id="90" x="450" y="0" />
   <node id="91" x="450" y="50" />
   <node id="92" x="450" y="100" />
   <node id="93" x="450" y="150" />
   <node id="94" x="450" y="200" />
   <node id="95" x="450" y="250" />
   <node id="96" x="450" y="300" />
   <node id="97" x="450" y="350" />
   <node id="98" x="450" y="400" />
   <node id="99" x="450" y="450" />
</nodes>
