<routes>
   <vType accel="1.0" decel="5.0" id="Car" length="6.0" maxSpeed="100" sigma="0.0" />
<route id="0" edges="0_to_1 1_to_2 2_to_3 3_to_4 4_to_5 5_to_6 6_to_7 7_to_8 8_to_9 "/>
<route id="1" edges="10_to_11 11_to_12 12_to_13 13_to_14 14_to_15 15_to_16 16_to_17 17_to_18 18_to_19 "/>
<route id="2" edges="20_to_21 21_to_22 22_to_23 23_to_24 24_to_25 25_to_26 26_to_27 27_to_28 28_to_29 "/>
<route id="3" edges="30_to_31 31_to_32 32_to_33 33_to_34 34_to_35 35_to_36 36_to_37 37_to_38 38_to_39 "/>
<route id="4" edges="40_to_41 41_to_42 42_to_43 43_to_44 44_to_45 45_to_46 46_to_47 47_to_48 48_to_49 "/>
<route id="5" edges="50_to_51 51_to_52 52_to_53 53_to_54 54_to_55 55_to_56 56_to_57 57_to_58 58_to_59 "/>
<route id="6" edges="60_to_61 61_to_62 62_to_63 63_to_64 64_to_65 65_to_66 66_to_67 67_to_68 68_to_69 "/>
<route id="7" edges="70_to_71 71_to_72 72_to_73 73_to_74 74_to_75 75_to_76 76_to_77 77_to_78 78_to_79 "/>
<route id="8" edges="80_to_81 81_to_82 82_to_83 83_to_84 84_to_85 85_to_86 86_to_87 87_to_88 88_to_89 "/>
<route id="9" edges="90_to_91 91_to_92 92_to_93 93_to_94 94_to_95 95_to_96 96_to_97 97_to_98 98_to_99 "/>
<vehicle depart="0" id="veh0" route="0" type="Car" />
<vehicle depart="1" id="veh1" route="1" type="Car" />
<vehicle depart="2" id="veh2" route="2" type="Car" />
<vehicle depart="3" id="veh3" route="3" type="Car" />
<vehicle depart="4" id="veh4" route="4" type="Car" />
<vehicle depart="5" id="veh5" route="5" type="Car" />
<vehicle depart="6" id="veh6" route="6" type="Car" />
<vehicle depart="7" id="veh7" route="7" type="Car" />
<vehicle depart="8" id="veh8" route="8" type="Car" />
<vehicle depart="9" id="veh9" route="9" type="Car" />
</routes>
