<edges>
   <edge from="0" id="0_to_1" to="1" />
   <edge from="1" id="1_to_2" to="2" />
   <edge from="2" id="2_to_3" to="3" />
   <edge from="3" id="3_to_4" to="4" />
   <edge from="4" id="4_to_5" to="5" />
   <edge from="5" id="5_to_6" to="6" />
   <edge from="6" id="6_to_7" to="7" />
   <edge from="7" id="7_to_8" to="8" />
   <edge from="8" id="8_to_9" to="9" />
   <edge from="10" id="10_to_11" to="11" />
   <edge from="11" id="11_to_12" to="12" />
   <edge from="12" id="12_to_13" to="13" />
   <edge from="13" id="13_to_14" to="14" />
   <edge from="14" id="14_to_15" to="15" />
   <edge from="15" id="15_to_16" to="16" />
   <edge from="16" id="16_to_17" to="17" />
   <edge from="17" id="17_to_18" to="18" />
   <edge from="18" id="18_to_19" to="19" />
   <edge from="20" id="20_to_21" to="21" />
   <edge from="21" id="21_to_22" to="22" />
   <edge from="22" id="22_to_23" to="23" />
   <edge from="23" id="23_to_24" to="24" />
   <edge from="24" id="24_to_25" to="25" />
   <edge from="25" id="25_to_26" to="26" />
   <edge from="26" id="26_to_27" to="27" />
   <edge from="27" id="27_to_28" to="28" />
   <edge from="28" id="28_to_29" to="29" />
   <edge from="30" id="30_to_31" to="31" />
   <edge from="31" id="31_to_32" to="32" />
   <edge from="32" id="32_to_33" to="33" />
   <edge from="33" id="33_to_34" to="34" />
   <edge from="34" id="34_to_35" to="35" />
   <edge from="35" id="35_to_36" to="36" />
   <edge from="36" id="36_to_37" to="37" />
   <edge from="37" id="37_to_38" to="38" />
   <edge from="38" id="38_to_39" to="39" />
   <edge from="40" id="40_to_41" to="41" />
   <edge from="41" id="41_to_42" to="42" />
   <edge from="42" id="42_to_43" to="43" />
   <edge from="43" id="43_to_44" to="44" />
   <edge from="44" id="44_to_45" to="45" />
   <edge from="45" id="45_to_46" to="46" />
   <edge from="46" id="46_to_47" to="47" />
   <edge from="47" id="47_to_48" to="48" />
   <edge from="48" id="48_to_49" to="49" />
   <edge from="50" id="50_to_51" to="51" />
   <edge from="51" id="51_to_52" to="52" />
   <edge from="52" id="52_to_53" to="53" />
   <edge from="53" id="53_to_54" to="54" />
   <edge from="54" id="54_to_55" to="55" />
   <edge from="55" id="55_to_56" to="56" />
   <edge from="56" id="56_to_57" to="57" />
   <edge from="57" id="57_to_58" to="58" />
   <edge from="58" id="58_to_59" to="59" />
   <edge from="60" id="60_to_61" to="61" />
   <edge from="61" id="61_to_62" to="62" />
   <edge from="62" id="62_to_63" to="63" />
   <edge from="63" id="63_to_64" to="64" />
   <edge from="64" id="64_to_65" to="65" />
   <edge from="65" id="65_to_66" to="66" />
   <edge from="66" id="66_to_67" to="67" />
   <edge from="67" id="67_to_68" to="68" />
   <edge from="68" id="68_to_69" to="69" />
   <edge from="70" id="70_to_71" to="71" />
   <edge from="71" id="71_to_72" to="72" />
   <edge from="72" id="72_to_73" to="73" />
   <edge from="73" id="73_to_74" to="74" />
   <edge from="74" id="74_to_75" to="75" />
   <edge from="75" id="75_to_76" to="76" />
   <edge from="76" id="76_to_77" to="77" />
   <edge from="77" id="77_to_78" to="78" />
   <edge from="78" id="78_to_79" to="79" />
   <edge from="80" id="80_to_81" to="81" />
   <edge from="81" id="81_to_82" to="82" />
   <edge from="82" id="82_to_83" to="83" />
   <edge from="83" id="83_to_84" to="84" />
   <edge from="84" id="84_to_85" to="85" />
   <edge from="85" id="85_to_86" to="86" />
   <edge from="86" id="86_to_87" to="87" />
   <edge from="87" id="87_to_88" to="88" />
   <edge from="88" id="88_to_89" to="89" />
   <edge from="90" id="90_to_91" to="91" />
   <edge from="91" id="91_to_92" to="92" />
   <edge from="92" id="92_to_93" to="93" />
   <edge from="93" id="93_to_94" to="94" />
   <edge from="94" id="94_to_95" to="95" />
   <edge from="95" id="95_to_96" to="96" />
   <edge from="96" id="96_to_97" to="97" />
   <edge from="97" id="97_to_98" to="98" />
   <edge from="98" id="98_to_99" to="99" />
</edges>
