<?xml version="1.0" encoding="UTF-8"?>

<!-- generated on Sun May  4 20:18:19 2014 by SUMO netconvert Version 0.17.1
<?xml version="1.0" encoding="UTF-8"?>

<configuration xmlns:xsi="http://www.w3.org/2001/XMLSchema-instance" xsi:noNamespaceSchemaLocation="http://sumo.sf.net/xsd/netconvertConfiguration.xsd">

    <input>
        <node-files value="hello.nod.xml"/>
        <edge-files value="hello.edg.xml"/>
    </input>

    <output>
        <output-file value="hello.net.xml"/>
    </output>

</configuration>
-->

<net version="0.13" xmlns:xsi="http://www.w3.org/2001/XMLSchema-instance" xsi:noNamespaceSchemaLocation="http://sumo.sf.net/xsd/net_file.xsd">

    <location netOffset="0.00,0.00" convBoundary="0.00,0.00,1350.00,1350.00" origBoundary="0.00,0.00,1350.00,1350.00" projParameter="!"/>

    <edge id=":1_0" function="internal">
        <lane id=":1_0_0" index="0" speed="13.90" length="0.10" shape="1.65,150.00 1.65,150.00"/>
    </edge>
    <edge id=":11_0" function="internal">
        <lane id=":11_0_0" index="0" speed="13.90" length="0.10" shape="151.65,150.00 151.65,150.00"/>
    </edge>
    <edge id=":12_0" function="internal">
        <lane id=":12_0_0" index="0" speed="13.90" length="0.10" shape="151.65,300.00 151.65,300.00"/>
    </edge>
    <edge id=":13_0" function="internal">
        <lane id=":13_0_0" index="0" speed="13.90" length="0.10" shape="151.65,450.00 151.65,450.00"/>
    </edge>
    <edge id=":14_0" function="internal">
        <lane id=":14_0_0" index="0" speed="13.90" length="0.10" shape="151.65,600.00 151.65,600.00"/>
    </edge>
    <edge id=":15_0" function="internal">
        <lane id=":15_0_0" index="0" speed="13.90" length="0.10" shape="151.65,750.00 151.65,750.00"/>
    </edge>
    <edge id=":16_0" function="internal">
        <lane id=":16_0_0" index="0" speed="13.90" length="0.10" shape="151.65,900.00 151.65,900.00"/>
    </edge>
    <edge id=":17_0" function="internal">
        <lane id=":17_0_0" index="0" speed="13.90" length="0.10" shape="151.65,1050.00 151.65,1050.00"/>
    </edge>
    <edge id=":18_0" function="internal">
        <lane id=":18_0_0" index="0" speed="13.90" length="0.10" shape="151.65,1200.00 151.65,1200.00"/>
    </edge>
    <edge id=":2_0" function="internal">
        <lane id=":2_0_0" index="0" speed="13.90" length="0.10" shape="1.65,300.00 1.65,300.00"/>
    </edge>
    <edge id=":21_0" function="internal">
        <lane id=":21_0_0" index="0" speed="13.90" length="0.10" shape="301.65,150.00 301.65,150.00"/>
    </edge>
    <edge id=":22_0" function="internal">
        <lane id=":22_0_0" index="0" speed="13.90" length="0.10" shape="301.65,300.00 301.65,300.00"/>
    </edge>
    <edge id=":23_0" function="internal">
        <lane id=":23_0_0" index="0" speed="13.90" length="0.10" shape="301.65,450.00 301.65,450.00"/>
    </edge>
    <edge id=":24_0" function="internal">
        <lane id=":24_0_0" index="0" speed="13.90" length="0.10" shape="301.65,600.00 301.65,600.00"/>
    </edge>
    <edge id=":25_0" function="internal">
        <lane id=":25_0_0" index="0" speed="13.90" length="0.10" shape="301.65,750.00 301.65,750.00"/>
    </edge>
    <edge id=":26_0" function="internal">
        <lane id=":26_0_0" index="0" speed="13.90" length="0.10" shape="301.65,900.00 301.65,900.00"/>
    </edge>
    <edge id=":27_0" function="internal">
        <lane id=":27_0_0" index="0" speed="13.90" length="0.10" shape="301.65,1050.00 301.65,1050.00"/>
    </edge>
    <edge id=":28_0" function="internal">
        <lane id=":28_0_0" index="0" speed="13.90" length="0.10" shape="301.65,1200.00 301.65,1200.00"/>
    </edge>
    <edge id=":3_0" function="internal">
        <lane id=":3_0_0" index="0" speed="13.90" length="0.10" shape="1.65,450.00 1.65,450.00"/>
    </edge>
    <edge id=":31_0" function="internal">
        <lane id=":31_0_0" index="0" speed="13.90" length="0.10" shape="451.65,150.00 451.65,150.00"/>
    </edge>
    <edge id=":32_0" function="internal">
        <lane id=":32_0_0" index="0" speed="13.90" length="0.10" shape="451.65,300.00 451.65,300.00"/>
    </edge>
    <edge id=":33_0" function="internal">
        <lane id=":33_0_0" index="0" speed="13.90" length="0.10" shape="451.65,450.00 451.65,450.00"/>
    </edge>
    <edge id=":34_0" function="internal">
        <lane id=":34_0_0" index="0" speed="13.90" length="0.10" shape="451.65,600.00 451.65,600.00"/>
    </edge>
    <edge id=":35_0" function="internal">
        <lane id=":35_0_0" index="0" speed="13.90" length="0.10" shape="451.65,750.00 451.65,750.00"/>
    </edge>
    <edge id=":36_0" function="internal">
        <lane id=":36_0_0" index="0" speed="13.90" length="0.10" shape="451.65,900.00 451.65,900.00"/>
    </edge>
    <edge id=":37_0" function="internal">
        <lane id=":37_0_0" index="0" speed="13.90" length="0.10" shape="451.65,1050.00 451.65,1050.00"/>
    </edge>
    <edge id=":38_0" function="internal">
        <lane id=":38_0_0" index="0" speed="13.90" length="0.10" shape="451.65,1200.00 451.65,1200.00"/>
    </edge>
    <edge id=":4_0" function="internal">
        <lane id=":4_0_0" index="0" speed="13.90" length="0.10" shape="1.65,600.00 1.65,600.00"/>
    </edge>
    <edge id=":41_0" function="internal">
        <lane id=":41_0_0" index="0" speed="13.90" length="0.10" shape="601.65,150.00 601.65,150.00"/>
    </edge>
    <edge id=":42_0" function="internal">
        <lane id=":42_0_0" index="0" speed="13.90" length="0.10" shape="601.65,300.00 601.65,300.00"/>
    </edge>
    <edge id=":43_0" function="internal">
        <lane id=":43_0_0" index="0" speed="13.90" length="0.10" shape="601.65,450.00 601.65,450.00"/>
    </edge>
    <edge id=":44_0" function="internal">
        <lane id=":44_0_0" index="0" speed="13.90" length="0.10" shape="601.65,600.00 601.65,600.00"/>
    </edge>
    <edge id=":45_0" function="internal">
        <lane id=":45_0_0" index="0" speed="13.90" length="0.10" shape="601.65,750.00 601.65,750.00"/>
    </edge>
    <edge id=":46_0" function="internal">
        <lane id=":46_0_0" index="0" speed="13.90" length="0.10" shape="601.65,900.00 601.65,900.00"/>
    </edge>
    <edge id=":47_0" function="internal">
        <lane id=":47_0_0" index="0" speed="13.90" length="0.10" shape="601.65,1050.00 601.65,1050.00"/>
    </edge>
    <edge id=":48_0" function="internal">
        <lane id=":48_0_0" index="0" speed="13.90" length="0.10" shape="601.65,1200.00 601.65,1200.00"/>
    </edge>
    <edge id=":5_0" function="internal">
        <lane id=":5_0_0" index="0" speed="13.90" length="0.10" shape="1.65,750.00 1.65,750.00"/>
    </edge>
    <edge id=":51_0" function="internal">
        <lane id=":51_0_0" index="0" speed="13.90" length="0.10" shape="751.65,150.00 751.65,150.00"/>
    </edge>
    <edge id=":52_0" function="internal">
        <lane id=":52_0_0" index="0" speed="13.90" length="0.10" shape="751.65,300.00 751.65,300.00"/>
    </edge>
    <edge id=":53_0" function="internal">
        <lane id=":53_0_0" index="0" speed="13.90" length="0.10" shape="751.65,450.00 751.65,450.00"/>
    </edge>
    <edge id=":54_0" function="internal">
        <lane id=":54_0_0" index="0" speed="13.90" length="0.10" shape="751.65,600.00 751.65,600.00"/>
    </edge>
    <edge id=":55_0" function="internal">
        <lane id=":55_0_0" index="0" speed="13.90" length="0.10" shape="751.65,750.00 751.65,750.00"/>
    </edge>
    <edge id=":56_0" function="internal">
        <lane id=":56_0_0" index="0" speed="13.90" length="0.10" shape="751.65,900.00 751.65,900.00"/>
    </edge>
    <edge id=":57_0" function="internal">
        <lane id=":57_0_0" index="0" speed="13.90" length="0.10" shape="751.65,1050.00 751.65,1050.00"/>
    </edge>
    <edge id=":58_0" function="internal">
        <lane id=":58_0_0" index="0" speed="13.90" length="0.10" shape="751.65,1200.00 751.65,1200.00"/>
    </edge>
    <edge id=":6_0" function="internal">
        <lane id=":6_0_0" index="0" speed="13.90" length="0.10" shape="1.65,900.00 1.65,900.00"/>
    </edge>
    <edge id=":61_0" function="internal">
        <lane id=":61_0_0" index="0" speed="13.90" length="0.10" shape="901.65,150.00 901.65,150.00"/>
    </edge>
    <edge id=":62_0" function="internal">
        <lane id=":62_0_0" index="0" speed="13.90" length="0.10" shape="901.65,300.00 901.65,300.00"/>
    </edge>
    <edge id=":63_0" function="internal">
        <lane id=":63_0_0" index="0" speed="13.90" length="0.10" shape="901.65,450.00 901.65,450.00"/>
    </edge>
    <edge id=":64_0" function="internal">
        <lane id=":64_0_0" index="0" speed="13.90" length="0.10" shape="901.65,600.00 901.65,600.00"/>
    </edge>
    <edge id=":65_0" function="internal">
        <lane id=":65_0_0" index="0" speed="13.90" length="0.10" shape="901.65,750.00 901.65,750.00"/>
    </edge>
    <edge id=":66_0" function="internal">
        <lane id=":66_0_0" index="0" speed="13.90" length="0.10" shape="901.65,900.00 901.65,900.00"/>
    </edge>
    <edge id=":67_0" function="internal">
        <lane id=":67_0_0" index="0" speed="13.90" length="0.10" shape="901.65,1050.00 901.65,1050.00"/>
    </edge>
    <edge id=":68_0" function="internal">
        <lane id=":68_0_0" index="0" speed="13.90" length="0.10" shape="901.65,1200.00 901.65,1200.00"/>
    </edge>
    <edge id=":7_0" function="internal">
        <lane id=":7_0_0" index="0" speed="13.90" length="0.10" shape="1.65,1050.00 1.65,1050.00"/>
    </edge>
    <edge id=":71_0" function="internal">
        <lane id=":71_0_0" index="0" speed="13.90" length="0.10" shape="1051.65,150.00 1051.65,150.00"/>
    </edge>
    <edge id=":72_0" function="internal">
        <lane id=":72_0_0" index="0" speed="13.90" length="0.10" shape="1051.65,300.00 1051.65,300.00"/>
    </edge>
    <edge id=":73_0" function="internal">
        <lane id=":73_0_0" index="0" speed="13.90" length="0.10" shape="1051.65,450.00 1051.65,450.00"/>
    </edge>
    <edge id=":74_0" function="internal">
        <lane id=":74_0_0" index="0" speed="13.90" length="0.10" shape="1051.65,600.00 1051.65,600.00"/>
    </edge>
    <edge id=":75_0" function="internal">
        <lane id=":75_0_0" index="0" speed="13.90" length="0.10" shape="1051.65,750.00 1051.65,750.00"/>
    </edge>
    <edge id=":76_0" function="internal">
        <lane id=":76_0_0" index="0" speed="13.90" length="0.10" shape="1051.65,900.00 1051.65,900.00"/>
    </edge>
    <edge id=":77_0" function="internal">
        <lane id=":77_0_0" index="0" speed="13.90" length="0.10" shape="1051.65,1050.00 1051.65,1050.00"/>
    </edge>
    <edge id=":78_0" function="internal">
        <lane id=":78_0_0" index="0" speed="13.90" length="0.10" shape="1051.65,1200.00 1051.65,1200.00"/>
    </edge>
    <edge id=":8_0" function="internal">
        <lane id=":8_0_0" index="0" speed="13.90" length="0.10" shape="1.65,1200.00 1.65,1200.00"/>
    </edge>
    <edge id=":81_0" function="internal">
        <lane id=":81_0_0" index="0" speed="13.90" length="0.10" shape="1201.65,150.00 1201.65,150.00"/>
    </edge>
    <edge id=":82_0" function="internal">
        <lane id=":82_0_0" index="0" speed="13.90" length="0.10" shape="1201.65,300.00 1201.65,300.00"/>
    </edge>
    <edge id=":83_0" function="internal">
        <lane id=":83_0_0" index="0" speed="13.90" length="0.10" shape="1201.65,450.00 1201.65,450.00"/>
    </edge>
    <edge id=":84_0" function="internal">
        <lane id=":84_0_0" index="0" speed="13.90" length="0.10" shape="1201.65,600.00 1201.65,600.00"/>
    </edge>
    <edge id=":85_0" function="internal">
        <lane id=":85_0_0" index="0" speed="13.90" length="0.10" shape="1201.65,750.00 1201.65,750.00"/>
    </edge>
    <edge id=":86_0" function="internal">
        <lane id=":86_0_0" index="0" speed="13.90" length="0.10" shape="1201.65,900.00 1201.65,900.00"/>
    </edge>
    <edge id=":87_0" function="internal">
        <lane id=":87_0_0" index="0" speed="13.90" length="0.10" shape="1201.65,1050.00 1201.65,1050.00"/>
    </edge>
    <edge id=":88_0" function="internal">
        <lane id=":88_0_0" index="0" speed="13.90" length="0.10" shape="1201.65,1200.00 1201.65,1200.00"/>
    </edge>
    <edge id=":91_0" function="internal">
        <lane id=":91_0_0" index="0" speed="13.90" length="0.10" shape="1351.65,150.00 1351.65,150.00"/>
    </edge>
    <edge id=":92_0" function="internal">
        <lane id=":92_0_0" index="0" speed="13.90" length="0.10" shape="1351.65,300.00 1351.65,300.00"/>
    </edge>
    <edge id=":93_0" function="internal">
        <lane id=":93_0_0" index="0" speed="13.90" length="0.10" shape="1351.65,450.00 1351.65,450.00"/>
    </edge>
    <edge id=":94_0" function="internal">
        <lane id=":94_0_0" index="0" speed="13.90" length="0.10" shape="1351.65,600.00 1351.65,600.00"/>
    </edge>
    <edge id=":95_0" function="internal">
        <lane id=":95_0_0" index="0" speed="13.90" length="0.10" shape="1351.65,750.00 1351.65,750.00"/>
    </edge>
    <edge id=":96_0" function="internal">
        <lane id=":96_0_0" index="0" speed="13.90" length="0.10" shape="1351.65,900.00 1351.65,900.00"/>
    </edge>
    <edge id=":97_0" function="internal">
        <lane id=":97_0_0" index="0" speed="13.90" length="0.10" shape="1351.65,1050.00 1351.65,1050.00"/>
    </edge>
    <edge id=":98_0" function="internal">
        <lane id=":98_0_0" index="0" speed="13.90" length="0.10" shape="1351.65,1200.00 1351.65,1200.00"/>
    </edge>

    <edge id="0_to_1" from="0" to="1" priority="-1">
        <lane id="0_to_1_0" index="0" speed="13.90" length="150.00" shape="1.65,0.00 1.65,150.00"/>
    </edge>
    <edge id="10_to_11" from="10" to="11" priority="-1">
        <lane id="10_to_11_0" index="0" speed="13.90" length="150.00" shape="151.65,0.00 151.65,150.00"/>
    </edge>
    <edge id="11_to_12" from="11" to="12" priority="-1">
        <lane id="11_to_12_0" index="0" speed="13.90" length="150.00" shape="151.65,150.00 151.65,300.00"/>
    </edge>
    <edge id="12_to_13" from="12" to="13" priority="-1">
        <lane id="12_to_13_0" index="0" speed="13.90" length="150.00" shape="151.65,300.00 151.65,450.00"/>
    </edge>
    <edge id="13_to_14" from="13" to="14" priority="-1">
        <lane id="13_to_14_0" index="0" speed="13.90" length="150.00" shape="151.65,450.00 151.65,600.00"/>
    </edge>
    <edge id="14_to_15" from="14" to="15" priority="-1">
        <lane id="14_to_15_0" index="0" speed="13.90" length="150.00" shape="151.65,600.00 151.65,750.00"/>
    </edge>
    <edge id="15_to_16" from="15" to="16" priority="-1">
        <lane id="15_to_16_0" index="0" speed="13.90" length="150.00" shape="151.65,750.00 151.65,900.00"/>
    </edge>
    <edge id="16_to_17" from="16" to="17" priority="-1">
        <lane id="16_to_17_0" index="0" speed="13.90" length="150.00" shape="151.65,900.00 151.65,1050.00"/>
    </edge>
    <edge id="17_to_18" from="17" to="18" priority="-1">
        <lane id="17_to_18_0" index="0" speed="13.90" length="150.00" shape="151.65,1050.00 151.65,1200.00"/>
    </edge>
    <edge id="18_to_19" from="18" to="19" priority="-1">
        <lane id="18_to_19_0" index="0" speed="13.90" length="150.00" shape="151.65,1200.00 151.65,1350.00"/>
    </edge>
    <edge id="1_to_2" from="1" to="2" priority="-1">
        <lane id="1_to_2_0" index="0" speed="13.90" length="150.00" shape="1.65,150.00 1.65,300.00"/>
    </edge>
    <edge id="20_to_21" from="20" to="21" priority="-1">
        <lane id="20_to_21_0" index="0" speed="13.90" length="150.00" shape="301.65,0.00 301.65,150.00"/>
    </edge>
    <edge id="21_to_22" from="21" to="22" priority="-1">
        <lane id="21_to_22_0" index="0" speed="13.90" length="150.00" shape="301.65,150.00 301.65,300.00"/>
    </edge>
    <edge id="22_to_23" from="22" to="23" priority="-1">
        <lane id="22_to_23_0" index="0" speed="13.90" length="150.00" shape="301.65,300.00 301.65,450.00"/>
    </edge>
    <edge id="23_to_24" from="23" to="24" priority="-1">
        <lane id="23_to_24_0" index="0" speed="13.90" length="150.00" shape="301.65,450.00 301.65,600.00"/>
    </edge>
    <edge id="24_to_25" from="24" to="25" priority="-1">
        <lane id="24_to_25_0" index="0" speed="13.90" length="150.00" shape="301.65,600.00 301.65,750.00"/>
    </edge>
    <edge id="25_to_26" from="25" to="26" priority="-1">
        <lane id="25_to_26_0" index="0" speed="13.90" length="150.00" shape="301.65,750.00 301.65,900.00"/>
    </edge>
    <edge id="26_to_27" from="26" to="27" priority="-1">
        <lane id="26_to_27_0" index="0" speed="13.90" length="150.00" shape="301.65,900.00 301.65,1050.00"/>
    </edge>
    <edge id="27_to_28" from="27" to="28" priority="-1">
        <lane id="27_to_28_0" index="0" speed="13.90" length="150.00" shape="301.65,1050.00 301.65,1200.00"/>
    </edge>
    <edge id="28_to_29" from="28" to="29" priority="-1">
        <lane id="28_to_29_0" index="0" speed="13.90" length="150.00" shape="301.65,1200.00 301.65,1350.00"/>
    </edge>
    <edge id="2_to_3" from="2" to="3" priority="-1">
        <lane id="2_to_3_0" index="0" speed="13.90" length="150.00" shape="1.65,300.00 1.65,450.00"/>
    </edge>
    <edge id="30_to_31" from="30" to="31" priority="-1">
        <lane id="30_to_31_0" index="0" speed="13.90" length="150.00" shape="451.65,0.00 451.65,150.00"/>
    </edge>
    <edge id="31_to_32" from="31" to="32" priority="-1">
        <lane id="31_to_32_0" index="0" speed="13.90" length="150.00" shape="451.65,150.00 451.65,300.00"/>
    </edge>
    <edge id="32_to_33" from="32" to="33" priority="-1">
        <lane id="32_to_33_0" index="0" speed="13.90" length="150.00" shape="451.65,300.00 451.65,450.00"/>
    </edge>
    <edge id="33_to_34" from="33" to="34" priority="-1">
        <lane id="33_to_34_0" index="0" speed="13.90" length="150.00" shape="451.65,450.00 451.65,600.00"/>
    </edge>
    <edge id="34_to_35" from="34" to="35" priority="-1">
        <lane id="34_to_35_0" index="0" speed="13.90" length="150.00" shape="451.65,600.00 451.65,750.00"/>
    </edge>
    <edge id="35_to_36" from="35" to="36" priority="-1">
        <lane id="35_to_36_0" index="0" speed="13.90" length="150.00" shape="451.65,750.00 451.65,900.00"/>
    </edge>
    <edge id="36_to_37" from="36" to="37" priority="-1">
        <lane id="36_to_37_0" index="0" speed="13.90" length="150.00" shape="451.65,900.00 451.65,1050.00"/>
    </edge>
    <edge id="37_to_38" from="37" to="38" priority="-1">
        <lane id="37_to_38_0" index="0" speed="13.90" length="150.00" shape="451.65,1050.00 451.65,1200.00"/>
    </edge>
    <edge id="38_to_39" from="38" to="39" priority="-1">
        <lane id="38_to_39_0" index="0" speed="13.90" length="150.00" shape="451.65,1200.00 451.65,1350.00"/>
    </edge>
    <edge id="3_to_4" from="3" to="4" priority="-1">
        <lane id="3_to_4_0" index="0" speed="13.90" length="150.00" shape="1.65,450.00 1.65,600.00"/>
    </edge>
    <edge id="40_to_41" from="40" to="41" priority="-1">
        <lane id="40_to_41_0" index="0" speed="13.90" length="150.00" shape="601.65,0.00 601.65,150.00"/>
    </edge>
    <edge id="41_to_42" from="41" to="42" priority="-1">
        <lane id="41_to_42_0" index="0" speed="13.90" length="150.00" shape="601.65,150.00 601.65,300.00"/>
    </edge>
    <edge id="42_to_43" from="42" to="43" priority="-1">
        <lane id="42_to_43_0" index="0" speed="13.90" length="150.00" shape="601.65,300.00 601.65,450.00"/>
    </edge>
    <edge id="43_to_44" from="43" to="44" priority="-1">
        <lane id="43_to_44_0" index="0" speed="13.90" length="150.00" shape="601.65,450.00 601.65,600.00"/>
    </edge>
    <edge id="44_to_45" from="44" to="45" priority="-1">
        <lane id="44_to_45_0" index="0" speed="13.90" length="150.00" shape="601.65,600.00 601.65,750.00"/>
    </edge>
    <edge id="45_to_46" from="45" to="46" priority="-1">
        <lane id="45_to_46_0" index="0" speed="13.90" length="150.00" shape="601.65,750.00 601.65,900.00"/>
    </edge>
    <edge id="46_to_47" from="46" to="47" priority="-1">
        <lane id="46_to_47_0" index="0" speed="13.90" length="150.00" shape="601.65,900.00 601.65,1050.00"/>
    </edge>
    <edge id="47_to_48" from="47" to="48" priority="-1">
        <lane id="47_to_48_0" index="0" speed="13.90" length="150.00" shape="601.65,1050.00 601.65,1200.00"/>
    </edge>
    <edge id="48_to_49" from="48" to="49" priority="-1">
        <lane id="48_to_49_0" index="0" speed="13.90" length="150.00" shape="601.65,1200.00 601.65,1350.00"/>
    </edge>
    <edge id="4_to_5" from="4" to="5" priority="-1">
        <lane id="4_to_5_0" index="0" speed="13.90" length="150.00" shape="1.65,600.00 1.65,750.00"/>
    </edge>
    <edge id="50_to_51" from="50" to="51" priority="-1">
        <lane id="50_to_51_0" index="0" speed="13.90" length="150.00" shape="751.65,0.00 751.65,150.00"/>
    </edge>
    <edge id="51_to_52" from="51" to="52" priority="-1">
        <lane id="51_to_52_0" index="0" speed="13.90" length="150.00" shape="751.65,150.00 751.65,300.00"/>
    </edge>
    <edge id="52_to_53" from="52" to="53" priority="-1">
        <lane id="52_to_53_0" index="0" speed="13.90" length="150.00" shape="751.65,300.00 751.65,450.00"/>
    </edge>
    <edge id="53_to_54" from="53" to="54" priority="-1">
        <lane id="53_to_54_0" index="0" speed="13.90" length="150.00" shape="751.65,450.00 751.65,600.00"/>
    </edge>
    <edge id="54_to_55" from="54" to="55" priority="-1">
        <lane id="54_to_55_0" index="0" speed="13.90" length="150.00" shape="751.65,600.00 751.65,750.00"/>
    </edge>
    <edge id="55_to_56" from="55" to="56" priority="-1">
        <lane id="55_to_56_0" index="0" speed="13.90" length="150.00" shape="751.65,750.00 751.65,900.00"/>
    </edge>
    <edge id="56_to_57" from="56" to="57" priority="-1">
        <lane id="56_to_57_0" index="0" speed="13.90" length="150.00" shape="751.65,900.00 751.65,1050.00"/>
    </edge>
    <edge id="57_to_58" from="57" to="58" priority="-1">
        <lane id="57_to_58_0" index="0" speed="13.90" length="150.00" shape="751.65,1050.00 751.65,1200.00"/>
    </edge>
    <edge id="58_to_59" from="58" to="59" priority="-1">
        <lane id="58_to_59_0" index="0" speed="13.90" length="150.00" shape="751.65,1200.00 751.65,1350.00"/>
    </edge>
    <edge id="5_to_6" from="5" to="6" priority="-1">
        <lane id="5_to_6_0" index="0" speed="13.90" length="150.00" shape="1.65,750.00 1.65,900.00"/>
    </edge>
    <edge id="60_to_61" from="60" to="61" priority="-1">
        <lane id="60_to_61_0" index="0" speed="13.90" length="150.00" shape="901.65,0.00 901.65,150.00"/>
    </edge>
    <edge id="61_to_62" from="61" to="62" priority="-1">
        <lane id="61_to_62_0" index="0" speed="13.90" length="150.00" shape="901.65,150.00 901.65,300.00"/>
    </edge>
    <edge id="62_to_63" from="62" to="63" priority="-1">
        <lane id="62_to_63_0" index="0" speed="13.90" length="150.00" shape="901.65,300.00 901.65,450.00"/>
    </edge>
    <edge id="63_to_64" from="63" to="64" priority="-1">
        <lane id="63_to_64_0" index="0" speed="13.90" length="150.00" shape="901.65,450.00 901.65,600.00"/>
    </edge>
    <edge id="64_to_65" from="64" to="65" priority="-1">
        <lane id="64_to_65_0" index="0" speed="13.90" length="150.00" shape="901.65,600.00 901.65,750.00"/>
    </edge>
    <edge id="65_to_66" from="65" to="66" priority="-1">
        <lane id="65_to_66_0" index="0" speed="13.90" length="150.00" shape="901.65,750.00 901.65,900.00"/>
    </edge>
    <edge id="66_to_67" from="66" to="67" priority="-1">
        <lane id="66_to_67_0" index="0" speed="13.90" length="150.00" shape="901.65,900.00 901.65,1050.00"/>
    </edge>
    <edge id="67_to_68" from="67" to="68" priority="-1">
        <lane id="67_to_68_0" index="0" speed="13.90" length="150.00" shape="901.65,1050.00 901.65,1200.00"/>
    </edge>
    <edge id="68_to_69" from="68" to="69" priority="-1">
        <lane id="68_to_69_0" index="0" speed="13.90" length="150.00" shape="901.65,1200.00 901.65,1350.00"/>
    </edge>
    <edge id="6_to_7" from="6" to="7" priority="-1">
        <lane id="6_to_7_0" index="0" speed="13.90" length="150.00" shape="1.65,900.00 1.65,1050.00"/>
    </edge>
    <edge id="70_to_71" from="70" to="71" priority="-1">
        <lane id="70_to_71_0" index="0" speed="13.90" length="150.00" shape="1051.65,0.00 1051.65,150.00"/>
    </edge>
    <edge id="71_to_72" from="71" to="72" priority="-1">
        <lane id="71_to_72_0" index="0" speed="13.90" length="150.00" shape="1051.65,150.00 1051.65,300.00"/>
    </edge>
    <edge id="72_to_73" from="72" to="73" priority="-1">
        <lane id="72_to_73_0" index="0" speed="13.90" length="150.00" shape="1051.65,300.00 1051.65,450.00"/>
    </edge>
    <edge id="73_to_74" from="73" to="74" priority="-1">
        <lane id="73_to_74_0" index="0" speed="13.90" length="150.00" shape="1051.65,450.00 1051.65,600.00"/>
    </edge>
    <edge id="74_to_75" from="74" to="75" priority="-1">
        <lane id="74_to_75_0" index="0" speed="13.90" length="150.00" shape="1051.65,600.00 1051.65,750.00"/>
    </edge>
    <edge id="75_to_76" from="75" to="76" priority="-1">
        <lane id="75_to_76_0" index="0" speed="13.90" length="150.00" shape="1051.65,750.00 1051.65,900.00"/>
    </edge>
    <edge id="76_to_77" from="76" to="77" priority="-1">
        <lane id="76_to_77_0" index="0" speed="13.90" length="150.00" shape="1051.65,900.00 1051.65,1050.00"/>
    </edge>
    <edge id="77_to_78" from="77" to="78" priority="-1">
        <lane id="77_to_78_0" index="0" speed="13.90" length="150.00" shape="1051.65,1050.00 1051.65,1200.00"/>
    </edge>
    <edge id="78_to_79" from="78" to="79" priority="-1">
        <lane id="78_to_79_0" index="0" speed="13.90" length="150.00" shape="1051.65,1200.00 1051.65,1350.00"/>
    </edge>
    <edge id="7_to_8" from="7" to="8" priority="-1">
        <lane id="7_to_8_0" index="0" speed="13.90" length="150.00" shape="1.65,1050.00 1.65,1200.00"/>
    </edge>
    <edge id="80_to_81" from="80" to="81" priority="-1">
        <lane id="80_to_81_0" index="0" speed="13.90" length="150.00" shape="1201.65,0.00 1201.65,150.00"/>
    </edge>
    <edge id="81_to_82" from="81" to="82" priority="-1">
        <lane id="81_to_82_0" index="0" speed="13.90" length="150.00" shape="1201.65,150.00 1201.65,300.00"/>
    </edge>
    <edge id="82_to_83" from="82" to="83" priority="-1">
        <lane id="82_to_83_0" index="0" speed="13.90" length="150.00" shape="1201.65,300.00 1201.65,450.00"/>
    </edge>
    <edge id="83_to_84" from="83" to="84" priority="-1">
        <lane id="83_to_84_0" index="0" speed="13.90" length="150.00" shape="1201.65,450.00 1201.65,600.00"/>
    </edge>
    <edge id="84_to_85" from="84" to="85" priority="-1">
        <lane id="84_to_85_0" index="0" speed="13.90" length="150.00" shape="1201.65,600.00 1201.65,750.00"/>
    </edge>
    <edge id="85_to_86" from="85" to="86" priority="-1">
        <lane id="85_to_86_0" index="0" speed="13.90" length="150.00" shape="1201.65,750.00 1201.65,900.00"/>
    </edge>
    <edge id="86_to_87" from="86" to="87" priority="-1">
        <lane id="86_to_87_0" index="0" speed="13.90" length="150.00" shape="1201.65,900.00 1201.65,1050.00"/>
    </edge>
    <edge id="87_to_88" from="87" to="88" priority="-1">
        <lane id="87_to_88_0" index="0" speed="13.90" length="150.00" shape="1201.65,1050.00 1201.65,1200.00"/>
    </edge>
    <edge id="88_to_89" from="88" to="89" priority="-1">
        <lane id="88_to_89_0" index="0" speed="13.90" length="150.00" shape="1201.65,1200.00 1201.65,1350.00"/>
    </edge>
    <edge id="8_to_9" from="8" to="9" priority="-1">
        <lane id="8_to_9_0" index="0" speed="13.90" length="150.00" shape="1.65,1200.00 1.65,1350.00"/>
    </edge>
    <edge id="90_to_91" from="90" to="91" priority="-1">
        <lane id="90_to_91_0" index="0" speed="13.90" length="150.00" shape="1351.65,0.00 1351.65,150.00"/>
    </edge>
    <edge id="91_to_92" from="91" to="92" priority="-1">
        <lane id="91_to_92_0" index="0" speed="13.90" length="150.00" shape="1351.65,150.00 1351.65,300.00"/>
    </edge>
    <edge id="92_to_93" from="92" to="93" priority="-1">
        <lane id="92_to_93_0" index="0" speed="13.90" length="150.00" shape="1351.65,300.00 1351.65,450.00"/>
    </edge>
    <edge id="93_to_94" from="93" to="94" priority="-1">
        <lane id="93_to_94_0" index="0" speed="13.90" length="150.00" shape="1351.65,450.00 1351.65,600.00"/>
    </edge>
    <edge id="94_to_95" from="94" to="95" priority="-1">
        <lane id="94_to_95_0" index="0" speed="13.90" length="150.00" shape="1351.65,600.00 1351.65,750.00"/>
    </edge>
    <edge id="95_to_96" from="95" to="96" priority="-1">
        <lane id="95_to_96_0" index="0" speed="13.90" length="150.00" shape="1351.65,750.00 1351.65,900.00"/>
    </edge>
    <edge id="96_to_97" from="96" to="97" priority="-1">
        <lane id="96_to_97_0" index="0" speed="13.90" length="150.00" shape="1351.65,900.00 1351.65,1050.00"/>
    </edge>
    <edge id="97_to_98" from="97" to="98" priority="-1">
        <lane id="97_to_98_0" index="0" speed="13.90" length="150.00" shape="1351.65,1050.00 1351.65,1200.00"/>
    </edge>
    <edge id="98_to_99" from="98" to="99" priority="-1">
        <lane id="98_to_99_0" index="0" speed="13.90" length="150.00" shape="1351.65,1200.00 1351.65,1350.00"/>
    </edge>

    <junction id="0" type="unregulated" x="0.00" y="0.00" incLanes="" intLanes="" shape="0.05,-0.00 3.25,-0.00"/>
    <junction id="1" type="priority" x="0.00" y="150.00" incLanes="0_to_1_0" intLanes=":1_0_0" shape="0.05,150.00 3.25,150.00 0.05,150.00">
        <request index="0" response="0" foes="0" cont="0"/>
    </junction>
    <junction id="10" type="unregulated" x="150.00" y="0.00" incLanes="" intLanes="" shape="150.05,-0.00 153.25,-0.00"/>
    <junction id="11" type="priority" x="150.00" y="150.00" incLanes="10_to_11_0" intLanes=":11_0_0" shape="150.05,150.00 153.25,150.00 150.05,150.00">
        <request index="0" response="0" foes="0" cont="0"/>